
---------- Begin Simulation Statistics ----------
final_tick                                      84546                       # Number of ticks from beginning of simulation (restored from checkpoints and never reset)
host_inst_rate                                  49682                       # Simulator instruction rate (inst/s)
host_mem_usage                                4847992                       # Number of bytes of host memory used
host_op_rate                                    49839                       # Simulator op (including micro ops) rate (op/s)
host_seconds                                     0.12                       # Real time elapsed on the host
host_tick_rate                                 718708                       # Simulator tick rate (ticks/s)
sim_freq                                   2000000000                       # Frequency of simulated ticks
sim_insts                                        5838                       # Number of instructions simulated
sim_ops                                          5862                       # Number of ops (including micro ops) simulated
sim_seconds                                  0.000042                       # Number of seconds simulated
sim_ticks                                       84546                       # Number of ticks simulated
system.clk_domain.clock                             2                       # Clock period in ticks
system.cpu0.Branches                             1292                       # Number of branches fetched
system.cpu0.committedInsts                       5838                       # Number of instructions committed
system.cpu0.committedOps                         5862                       # Number of ops (including micro ops) committed
system.cpu0.dtb.accesses                            0                       # DTB accesses
system.cpu0.dtb.hits                                0                       # DTB hits
system.cpu0.dtb.misses                              0                       # DTB misses
system.cpu0.dtb.pwrStateResidencyTicks::UNDEFINED        84546                       # Cumulative time (in ticks) in various power states
system.cpu0.dtb.read_accesses                       0                       # DTB read accesses
system.cpu0.dtb.read_hits                           0                       # DTB read hits
system.cpu0.dtb.read_misses                         0                       # DTB read misses
system.cpu0.dtb.write_accesses                      0                       # DTB write accesses
system.cpu0.dtb.write_hits                          0                       # DTB write hits
system.cpu0.dtb.write_misses                        0                       # DTB write misses
system.cpu0.idle_fraction                    0.000012                       # Percentage of idle cycles
system.cpu0.itb.accesses                            0                       # DTB accesses
system.cpu0.itb.hits                                0                       # DTB hits
system.cpu0.itb.misses                              0                       # DTB misses
system.cpu0.itb.pwrStateResidencyTicks::UNDEFINED        84546                       # Cumulative time (in ticks) in various power states
system.cpu0.itb.read_accesses                       0                       # DTB read accesses
system.cpu0.itb.read_hits                           0                       # DTB read hits
system.cpu0.itb.read_misses                         0                       # DTB read misses
system.cpu0.itb.write_accesses                      0                       # DTB write accesses
system.cpu0.itb.write_hits                          0                       # DTB write hits
system.cpu0.itb.write_misses                        0                       # DTB write misses
system.cpu0.not_idle_fraction                0.999988                       # Percentage of non-idle cycles
system.cpu0.numCycles                           84546                       # number of cpu cycles simulated
system.cpu0.numWorkItemsCompleted                   0                       # number of work items this cpu completed
system.cpu0.numWorkItemsStarted                     0                       # number of work items this cpu started
system.cpu0.num_busy_cycles              84545.000012                       # Number of busy cycles
system.cpu0.num_conditional_control_insts          996                       # number of instructions that are conditional controls
system.cpu0.num_fp_alu_accesses                    12                       # Number of float alu accesses
system.cpu0.num_fp_insts                           12                       # number of float instructions
system.cpu0.num_fp_register_reads                  12                       # number of times the floating registers were read
system.cpu0.num_fp_register_writes                  0                       # number of times the floating registers were written
system.cpu0.num_func_calls                        296                       # number of times a function call or return occured
system.cpu0.num_idle_cycles                  0.999988                       # Number of idle cycles
system.cpu0.num_int_alu_accesses                 5773                       # Number of integer alu accesses
system.cpu0.num_int_insts                        5773                       # number of integer instructions
system.cpu0.num_int_register_reads               7358                       # number of times the integer registers were read
system.cpu0.num_int_register_writes              3605                       # number of times the integer registers were written
system.cpu0.num_load_insts                       1113                       # Number of load instructions
system.cpu0.num_mem_refs                         2189                       # number of memory refs
system.cpu0.num_store_insts                      1076                       # Number of store instructions
system.cpu0.num_vec_alu_accesses                    0                       # Number of vector alu accesses
system.cpu0.num_vec_insts                           0                       # number of vector instructions
system.cpu0.num_vec_register_reads                  0                       # number of times the vector registers were read
system.cpu0.num_vec_register_writes                 0                       # number of times the vector registers were written
system.cpu0.op_class::No_OpClass                   34      0.58%      0.58% # Class of executed instruction
system.cpu0.op_class::IntAlu                     3642     62.03%     62.61% # Class of executed instruction
system.cpu0.op_class::IntMult                       2      0.03%     62.65% # Class of executed instruction
system.cpu0.op_class::IntDiv                        4      0.07%     62.72% # Class of executed instruction
system.cpu0.op_class::FloatAdd                      0      0.00%     62.72% # Class of executed instruction
system.cpu0.op_class::FloatCmp                      0      0.00%     62.72% # Class of executed instruction
system.cpu0.op_class::FloatCvt                      0      0.00%     62.72% # Class of executed instruction
system.cpu0.op_class::FloatMult                     0      0.00%     62.72% # Class of executed instruction
system.cpu0.op_class::FloatMultAcc                  0      0.00%     62.72% # Class of executed instruction
system.cpu0.op_class::FloatDiv                      0      0.00%     62.72% # Class of executed instruction
system.cpu0.op_class::FloatMisc                     0      0.00%     62.72% # Class of executed instruction
system.cpu0.op_class::FloatSqrt                     0      0.00%     62.72% # Class of executed instruction
system.cpu0.op_class::SimdAdd                       0      0.00%     62.72% # Class of executed instruction
system.cpu0.op_class::SimdAddAcc                    0      0.00%     62.72% # Class of executed instruction
system.cpu0.op_class::SimdAlu                       0      0.00%     62.72% # Class of executed instruction
system.cpu0.op_class::SimdCmp                       0      0.00%     62.72% # Class of executed instruction
system.cpu0.op_class::SimdCvt                       0      0.00%     62.72% # Class of executed instruction
system.cpu0.op_class::SimdMisc                      0      0.00%     62.72% # Class of executed instruction
system.cpu0.op_class::SimdMult                      0      0.00%     62.72% # Class of executed instruction
system.cpu0.op_class::SimdMultAcc                   0      0.00%     62.72% # Class of executed instruction
system.cpu0.op_class::SimdShift                     0      0.00%     62.72% # Class of executed instruction
system.cpu0.op_class::SimdShiftAcc                  0      0.00%     62.72% # Class of executed instruction
system.cpu0.op_class::SimdSqrt                      0      0.00%     62.72% # Class of executed instruction
system.cpu0.op_class::SimdFloatAdd                  0      0.00%     62.72% # Class of executed instruction
system.cpu0.op_class::SimdFloatAlu                  0      0.00%     62.72% # Class of executed instruction
system.cpu0.op_class::SimdFloatCmp                  0      0.00%     62.72% # Class of executed instruction
system.cpu0.op_class::SimdFloatCvt                  0      0.00%     62.72% # Class of executed instruction
system.cpu0.op_class::SimdFloatDiv                  0      0.00%     62.72% # Class of executed instruction
system.cpu0.op_class::SimdFloatMisc                 0      0.00%     62.72% # Class of executed instruction
system.cpu0.op_class::SimdFloatMult                 0      0.00%     62.72% # Class of executed instruction
system.cpu0.op_class::SimdFloatMultAcc              0      0.00%     62.72% # Class of executed instruction
system.cpu0.op_class::SimdFloatSqrt                 0      0.00%     62.72% # Class of executed instruction
system.cpu0.op_class::SimdAes                       0      0.00%     62.72% # Class of executed instruction
system.cpu0.op_class::SimdAesMix                    0      0.00%     62.72% # Class of executed instruction
system.cpu0.op_class::SimdSha1Hash                  0      0.00%     62.72% # Class of executed instruction
system.cpu0.op_class::SimdSha1Hash2                 0      0.00%     62.72% # Class of executed instruction
system.cpu0.op_class::SimdSha256Hash                0      0.00%     62.72% # Class of executed instruction
system.cpu0.op_class::SimdSha256Hash2               0      0.00%     62.72% # Class of executed instruction
system.cpu0.op_class::SimdShaSigma2                 0      0.00%     62.72% # Class of executed instruction
system.cpu0.op_class::SimdShaSigma3                 0      0.00%     62.72% # Class of executed instruction
system.cpu0.op_class::MemRead                    1122     19.11%     81.83% # Class of executed instruction
system.cpu0.op_class::MemWrite                   1055     17.97%     99.80% # Class of executed instruction
system.cpu0.op_class::FloatMemRead                  0      0.00%     99.80% # Class of executed instruction
system.cpu0.op_class::FloatMemWrite                12      0.20%    100.00% # Class of executed instruction
system.cpu0.op_class::IprAccess                     0      0.00%    100.00% # Class of executed instruction
system.cpu0.op_class::InstPrefetch                  0      0.00%    100.00% # Class of executed instruction
system.cpu0.op_class::total                      5871                       # Class of executed instruction
system.cpu0.pwrStateResidencyTicks::ON          84546                       # Cumulative time (in ticks) in various power states
system.cpu0.workload.numSyscalls                    9                       # Number of system calls
system.cpu1.committedInsts                          0                       # Number of instructions committed
system.cpu1.committedOps                            0                       # Number of ops (including micro ops) committed
system.cpu1.dtb.accesses                            0                       # DTB accesses
system.cpu1.dtb.hits                                0                       # DTB hits
system.cpu1.dtb.misses                              0                       # DTB misses
system.cpu1.dtb.pwrStateResidencyTicks::UNDEFINED        84546                       # Cumulative time (in ticks) in various power states
system.cpu1.dtb.read_accesses                       0                       # DTB read accesses
system.cpu1.dtb.read_hits                           0                       # DTB read hits
system.cpu1.dtb.read_misses                         0                       # DTB read misses
system.cpu1.dtb.write_accesses                      0                       # DTB write accesses
system.cpu1.dtb.write_hits                          0                       # DTB write hits
system.cpu1.dtb.write_misses                        0                       # DTB write misses
system.cpu1.idle_fraction                           1                       # Percentage of idle cycles
system.cpu1.itb.accesses                            0                       # DTB accesses
system.cpu1.itb.hits                                0                       # DTB hits
system.cpu1.itb.misses                              0                       # DTB misses
system.cpu1.itb.pwrStateResidencyTicks::UNDEFINED        84546                       # Cumulative time (in ticks) in various power states
system.cpu1.itb.read_accesses                       0                       # DTB read accesses
system.cpu1.itb.read_hits                           0                       # DTB read hits
system.cpu1.itb.read_misses                         0                       # DTB read misses
system.cpu1.itb.write_accesses                      0                       # DTB write accesses
system.cpu1.itb.write_hits                          0                       # DTB write hits
system.cpu1.itb.write_misses                        0                       # DTB write misses
system.cpu1.not_idle_fraction                       0                       # Percentage of non-idle cycles
system.cpu1.numCycles                               0                       # number of cpu cycles simulated
system.cpu1.numWorkItemsCompleted                   0                       # number of work items this cpu completed
system.cpu1.numWorkItemsStarted                     0                       # number of work items this cpu started
system.cpu1.num_busy_cycles                         0                       # Number of busy cycles
system.cpu1.num_conditional_control_insts            0                       # number of instructions that are conditional controls
system.cpu1.num_fp_alu_accesses                     0                       # Number of float alu accesses
system.cpu1.num_fp_insts                            0                       # number of float instructions
system.cpu1.num_fp_register_reads                   0                       # number of times the floating registers were read
system.cpu1.num_fp_register_writes                  0                       # number of times the floating registers were written
system.cpu1.num_func_calls                          0                       # number of times a function call or return occured
system.cpu1.num_idle_cycles                         0                       # Number of idle cycles
system.cpu1.num_int_alu_accesses                    0                       # Number of integer alu accesses
system.cpu1.num_int_insts                           0                       # number of integer instructions
system.cpu1.num_int_register_reads                  0                       # number of times the integer registers were read
system.cpu1.num_int_register_writes                 0                       # number of times the integer registers were written
system.cpu1.num_load_insts                          0                       # Number of load instructions
system.cpu1.num_mem_refs                            0                       # number of memory refs
system.cpu1.num_store_insts                         0                       # Number of store instructions
system.cpu1.num_vec_alu_accesses                    0                       # Number of vector alu accesses
system.cpu1.num_vec_insts                           0                       # number of vector instructions
system.cpu1.num_vec_register_reads                  0                       # number of times the vector registers were read
system.cpu1.num_vec_register_writes                 0                       # number of times the vector registers were written
system.cpu1.op_class::No_OpClass                    0                       # Class of executed instruction
system.cpu1.op_class::IntAlu                        0                       # Class of executed instruction
system.cpu1.op_class::IntMult                       0                       # Class of executed instruction
system.cpu1.op_class::IntDiv                        0                       # Class of executed instruction
system.cpu1.op_class::FloatAdd                      0                       # Class of executed instruction
system.cpu1.op_class::FloatCmp                      0                       # Class of executed instruction
system.cpu1.op_class::FloatCvt                      0                       # Class of executed instruction
system.cpu1.op_class::FloatMult                     0                       # Class of executed instruction
system.cpu1.op_class::FloatMultAcc                  0                       # Class of executed instruction
system.cpu1.op_class::FloatDiv                      0                       # Class of executed instruction
system.cpu1.op_class::FloatMisc                     0                       # Class of executed instruction
system.cpu1.op_class::FloatSqrt                     0                       # Class of executed instruction
system.cpu1.op_class::SimdAdd                       0                       # Class of executed instruction
system.cpu1.op_class::SimdAddAcc                    0                       # Class of executed instruction
system.cpu1.op_class::SimdAlu                       0                       # Class of executed instruction
system.cpu1.op_class::SimdCmp                       0                       # Class of executed instruction
system.cpu1.op_class::SimdCvt                       0                       # Class of executed instruction
system.cpu1.op_class::SimdMisc                      0                       # Class of executed instruction
system.cpu1.op_class::SimdMult                      0                       # Class of executed instruction
system.cpu1.op_class::SimdMultAcc                   0                       # Class of executed instruction
system.cpu1.op_class::SimdShift                     0                       # Class of executed instruction
system.cpu1.op_class::SimdShiftAcc                  0                       # Class of executed instruction
system.cpu1.op_class::SimdSqrt                      0                       # Class of executed instruction
system.cpu1.op_class::SimdFloatAdd                  0                       # Class of executed instruction
system.cpu1.op_class::SimdFloatAlu                  0                       # Class of executed instruction
system.cpu1.op_class::SimdFloatCmp                  0                       # Class of executed instruction
system.cpu1.op_class::SimdFloatCvt                  0                       # Class of executed instruction
system.cpu1.op_class::SimdFloatDiv                  0                       # Class of executed instruction
system.cpu1.op_class::SimdFloatMisc                 0                       # Class of executed instruction
system.cpu1.op_class::SimdFloatMult                 0                       # Class of executed instruction
system.cpu1.op_class::SimdFloatMultAcc              0                       # Class of executed instruction
system.cpu1.op_class::SimdFloatSqrt                 0                       # Class of executed instruction
system.cpu1.op_class::SimdAes                       0                       # Class of executed instruction
system.cpu1.op_class::SimdAesMix                    0                       # Class of executed instruction
system.cpu1.op_class::SimdSha1Hash                  0                       # Class of executed instruction
system.cpu1.op_class::SimdSha1Hash2                 0                       # Class of executed instruction
system.cpu1.op_class::SimdSha256Hash                0                       # Class of executed instruction
system.cpu1.op_class::SimdSha256Hash2               0                       # Class of executed instruction
system.cpu1.op_class::SimdShaSigma2                 0                       # Class of executed instruction
system.cpu1.op_class::SimdShaSigma3                 0                       # Class of executed instruction
system.cpu1.op_class::MemRead                       0                       # Class of executed instruction
system.cpu1.op_class::MemWrite                      0                       # Class of executed instruction
system.cpu1.op_class::FloatMemRead                  0                       # Class of executed instruction
system.cpu1.op_class::FloatMemWrite                 0                       # Class of executed instruction
system.cpu1.op_class::IprAccess                     0                       # Class of executed instruction
system.cpu1.op_class::InstPrefetch                  0                       # Class of executed instruction
system.cpu1.op_class::total                         0                       # Class of executed instruction
system.cpu1.pwrStateResidencyTicks::ON          84546                       # Cumulative time (in ticks) in various power states
system.cpu_clk_domain.clock                         1                       # Clock period in ticks
system.cpu_voltage_domain.voltage                   1                       # Voltage in Volts
system.mem_ctrls0.avgBusLat                     10.00                       # Average bus latency per DRAM burst
system.mem_ctrls0.avgGap                       928.28                       # Average gap between requests
system.mem_ctrls0.avgMemAccLat                  73.17                       # Average memory access latency per DRAM burst
system.mem_ctrls0.avgPriority_.ruby.dir_cntrl0::samples        90.00                       # Average QoS priority value for accepted requests
system.mem_ctrls0.avgQLat                       35.17                       # Average queueing delay per DRAM burst
system.mem_ctrls0.avgRdBW                      136.26                       # Average DRAM read bandwidth in MiByte/s
system.mem_ctrls0.avgRdBWSys                   136.26                       # Average system read bandwidth in MiByte/s
system.mem_ctrls0.avgRdQLen                      1.00                       # Average read queue length when enqueuing
system.mem_ctrls0.avgWrBW                        0.00                       # Average achieved write bandwidth in MiByte/s
system.mem_ctrls0.avgWrBWSys                     0.00                       # Average system write bandwidth in MiByte/s
system.mem_ctrls0.avgWrQLen                      0.00                       # Average write queue length when enqueuing
system.mem_ctrls0.busUtil                        1.06                       # Data bus utilization in percentage
system.mem_ctrls0.busUtilRead                    1.06                       # Data bus utilization in percentage for reads
system.mem_ctrls0.busUtilWrite                   0.00                       # Data bus utilization in percentage for writes
system.mem_ctrls0.bw_read::.ruby.dir_cntrl0    136257185                       # Total read bandwidth from this memory (bytes/s)
system.mem_ctrls0.bw_read::total            136257185                       # Total read bandwidth from this memory (bytes/s)
system.mem_ctrls0.bw_total::.ruby.dir_cntrl0    136257185                       # Total bandwidth to/from this memory (bytes/s)
system.mem_ctrls0.bw_total::total           136257185                       # Total bandwidth to/from this memory (bytes/s)
system.mem_ctrls0.bytesPerActivate::samples           29                       # Bytes accessed per row activation
system.mem_ctrls0.bytesPerActivate::mean   183.172414                       # Bytes accessed per row activation
system.mem_ctrls0.bytesPerActivate::gmean   141.858097                       # Bytes accessed per row activation
system.mem_ctrls0.bytesPerActivate::stdev   136.542528                       # Bytes accessed per row activation
system.mem_ctrls0.bytesPerActivate::64-127           11     37.93%     37.93% # Bytes accessed per row activation
system.mem_ctrls0.bytesPerActivate::128-191            4     13.79%     51.72% # Bytes accessed per row activation
system.mem_ctrls0.bytesPerActivate::192-255            6     20.69%     72.41% # Bytes accessed per row activation
system.mem_ctrls0.bytesPerActivate::256-319            2      6.90%     79.31% # Bytes accessed per row activation
system.mem_ctrls0.bytesPerActivate::320-383            2      6.90%     86.21% # Bytes accessed per row activation
system.mem_ctrls0.bytesPerActivate::384-447            2      6.90%     93.10% # Bytes accessed per row activation
system.mem_ctrls0.bytesPerActivate::448-511            1      3.45%     96.55% # Bytes accessed per row activation
system.mem_ctrls0.bytesPerActivate::576-639            1      3.45%    100.00% # Bytes accessed per row activation
system.mem_ctrls0.bytesPerActivate::total           29                       # Bytes accessed per row activation
system.mem_ctrls0.bytesReadDRAM                  5760                       # Total number of bytes read from DRAM
system.mem_ctrls0.bytesReadSys                   5760                       # Total read bytes from the system interface side
system.mem_ctrls0.bytesReadWrQ                      0                       # Total number of bytes read from write queue
system.mem_ctrls0.bytesWritten                      0                       # Total number of bytes written to DRAM
system.mem_ctrls0.bytesWrittenSys                   0                       # Total written bytes from the system interface side
system.mem_ctrls0.bytes_read::.ruby.dir_cntrl0         5760                       # Number of bytes read from this memory
system.mem_ctrls0.bytes_read::total              5760                       # Number of bytes read from this memory
system.mem_ctrls0.masterReadAccesses::.ruby.dir_cntrl0           90                       # Per-master read serviced memory accesses
system.mem_ctrls0.masterReadAvgLat::.ruby.dir_cntrl0        73.17                       # Per-master read average memory access latency
system.mem_ctrls0.masterReadBytes::.ruby.dir_cntrl0         5760                       # Per-master bytes read from memory
system.mem_ctrls0.masterReadRate::.ruby.dir_cntrl0 136257185.437513291836                       # Per-master bytes read from memory rate (Bytes/sec)
system.mem_ctrls0.masterReadTotalLat::.ruby.dir_cntrl0         6585                       # Per-master read total memory access latency
system.mem_ctrls0.mergedWrBursts                    0                       # Number of DRAM write bursts merged with an existing one
system.mem_ctrls0.neitherReadNorWriteReqs            0                       # Number of requests that are neither read nor write
system.mem_ctrls0.numRdRetry                        0                       # Number of times read queue was full causing retry
system.mem_ctrls0.numReadWriteTurnArounds            0                       # Number of turnarounds from READ to WRITE
system.mem_ctrls0.numStayReadState                190                       # Number of times bus staying in READ state
system.mem_ctrls0.numStayWriteState                 0                       # Number of times bus staying in WRITE state
system.mem_ctrls0.numWrRetry                        0                       # Number of times write queue was full causing retry
system.mem_ctrls0.numWriteReadTurnArounds            0                       # Number of turnarounds from WRITE to READ
system.mem_ctrls0.num_reads::.ruby.dir_cntrl0           90                       # Number of read requests responded to by this memory
system.mem_ctrls0.num_reads::total                 90                       # Number of read requests responded to by this memory
system.mem_ctrls0.pageHitRate                   65.56                       # Row buffer hit rate, read and write combined
system.mem_ctrls0.peakBW                     12800.00                       # Theoretical peak bandwidth in MiByte/s
system.mem_ctrls0.perBankRdBursts::0               13                       # Per bank write bursts
system.mem_ctrls0.perBankRdBursts::1               21                       # Per bank write bursts
system.mem_ctrls0.perBankRdBursts::2                9                       # Per bank write bursts
system.mem_ctrls0.perBankRdBursts::3                0                       # Per bank write bursts
system.mem_ctrls0.perBankRdBursts::4                0                       # Per bank write bursts
system.mem_ctrls0.perBankRdBursts::5                2                       # Per bank write bursts
system.mem_ctrls0.perBankRdBursts::6                3                       # Per bank write bursts
system.mem_ctrls0.perBankRdBursts::7                0                       # Per bank write bursts
system.mem_ctrls0.perBankRdBursts::8                0                       # Per bank write bursts
system.mem_ctrls0.perBankRdBursts::9                6                       # Per bank write bursts
system.mem_ctrls0.perBankRdBursts::10               0                       # Per bank write bursts
system.mem_ctrls0.perBankRdBursts::11               1                       # Per bank write bursts
system.mem_ctrls0.perBankRdBursts::12               2                       # Per bank write bursts
system.mem_ctrls0.perBankRdBursts::13              28                       # Per bank write bursts
system.mem_ctrls0.perBankRdBursts::14               5                       # Per bank write bursts
system.mem_ctrls0.perBankRdBursts::15               0                       # Per bank write bursts
system.mem_ctrls0.perBankWrBursts::0                0                       # Per bank write bursts
system.mem_ctrls0.perBankWrBursts::1                0                       # Per bank write bursts
system.mem_ctrls0.perBankWrBursts::2                0                       # Per bank write bursts
system.mem_ctrls0.perBankWrBursts::3                0                       # Per bank write bursts
system.mem_ctrls0.perBankWrBursts::4                0                       # Per bank write bursts
system.mem_ctrls0.perBankWrBursts::5                0                       # Per bank write bursts
system.mem_ctrls0.perBankWrBursts::6                0                       # Per bank write bursts
system.mem_ctrls0.perBankWrBursts::7                0                       # Per bank write bursts
system.mem_ctrls0.perBankWrBursts::8                0                       # Per bank write bursts
system.mem_ctrls0.perBankWrBursts::9                0                       # Per bank write bursts
system.mem_ctrls0.perBankWrBursts::10               0                       # Per bank write bursts
system.mem_ctrls0.perBankWrBursts::11               0                       # Per bank write bursts
system.mem_ctrls0.perBankWrBursts::12               0                       # Per bank write bursts
system.mem_ctrls0.perBankWrBursts::13               0                       # Per bank write bursts
system.mem_ctrls0.perBankWrBursts::14               0                       # Per bank write bursts
system.mem_ctrls0.perBankWrBursts::15               0                       # Per bank write bursts
system.mem_ctrls0.priorityMaxLatency     0.000000495500                       # per QoS priority maximum request to response latency (s)
system.mem_ctrls0.priorityMinLatency     0.000000025000                       # per QoS priority minimum request to response latency (s)
system.mem_ctrls0.pwrStateResidencyTicks::UNDEFINED        84546                       # Cumulative time (in ticks) in various power states
system.mem_ctrls0.rdQLenPdf::0                     90                       # What read queue length does an incoming req see
system.mem_ctrls0.rdQLenPdf::1                      0                       # What read queue length does an incoming req see
system.mem_ctrls0.rdQLenPdf::2                      0                       # What read queue length does an incoming req see
system.mem_ctrls0.rdQLenPdf::3                      0                       # What read queue length does an incoming req see
system.mem_ctrls0.rdQLenPdf::4                      0                       # What read queue length does an incoming req see
system.mem_ctrls0.rdQLenPdf::5                      0                       # What read queue length does an incoming req see
system.mem_ctrls0.rdQLenPdf::6                      0                       # What read queue length does an incoming req see
system.mem_ctrls0.rdQLenPdf::7                      0                       # What read queue length does an incoming req see
system.mem_ctrls0.rdQLenPdf::8                      0                       # What read queue length does an incoming req see
system.mem_ctrls0.rdQLenPdf::9                      0                       # What read queue length does an incoming req see
system.mem_ctrls0.rdQLenPdf::10                     0                       # What read queue length does an incoming req see
system.mem_ctrls0.rdQLenPdf::11                     0                       # What read queue length does an incoming req see
system.mem_ctrls0.rdQLenPdf::12                     0                       # What read queue length does an incoming req see
system.mem_ctrls0.rdQLenPdf::13                     0                       # What read queue length does an incoming req see
system.mem_ctrls0.rdQLenPdf::14                     0                       # What read queue length does an incoming req see
system.mem_ctrls0.rdQLenPdf::15                     0                       # What read queue length does an incoming req see
system.mem_ctrls0.rdQLenPdf::16                     0                       # What read queue length does an incoming req see
system.mem_ctrls0.rdQLenPdf::17                     0                       # What read queue length does an incoming req see
system.mem_ctrls0.rdQLenPdf::18                     0                       # What read queue length does an incoming req see
system.mem_ctrls0.rdQLenPdf::19                     0                       # What read queue length does an incoming req see
system.mem_ctrls0.rdQLenPdf::20                     0                       # What read queue length does an incoming req see
system.mem_ctrls0.rdQLenPdf::21                     0                       # What read queue length does an incoming req see
system.mem_ctrls0.rdQLenPdf::22                     0                       # What read queue length does an incoming req see
system.mem_ctrls0.rdQLenPdf::23                     0                       # What read queue length does an incoming req see
system.mem_ctrls0.rdQLenPdf::24                     0                       # What read queue length does an incoming req see
system.mem_ctrls0.rdQLenPdf::25                     0                       # What read queue length does an incoming req see
system.mem_ctrls0.rdQLenPdf::26                     0                       # What read queue length does an incoming req see
system.mem_ctrls0.rdQLenPdf::27                     0                       # What read queue length does an incoming req see
system.mem_ctrls0.rdQLenPdf::28                     0                       # What read queue length does an incoming req see
system.mem_ctrls0.rdQLenPdf::29                     0                       # What read queue length does an incoming req see
system.mem_ctrls0.rdQLenPdf::30                     0                       # What read queue length does an incoming req see
system.mem_ctrls0.rdQLenPdf::31                     0                       # What read queue length does an incoming req see
system.mem_ctrls0.readBursts                       90                       # Number of DRAM read bursts, including those serviced by the write queue
system.mem_ctrls0.readPktSize::0                    0                       # Read request sizes (log2)
system.mem_ctrls0.readPktSize::1                    0                       # Read request sizes (log2)
system.mem_ctrls0.readPktSize::2                    0                       # Read request sizes (log2)
system.mem_ctrls0.readPktSize::3                    0                       # Read request sizes (log2)
system.mem_ctrls0.readPktSize::4                    0                       # Read request sizes (log2)
system.mem_ctrls0.readPktSize::5                    0                       # Read request sizes (log2)
system.mem_ctrls0.readPktSize::6                   90                       # Read request sizes (log2)
system.mem_ctrls0.readReqs                         90                       # Number of read requests accepted
system.mem_ctrls0.readRowHitRate                65.56                       # Row buffer hit rate for reads
system.mem_ctrls0.readRowHits                      59                       # Number of row buffer hits during reads
system.mem_ctrls0.servicedByWrQ                     0                       # Number of DRAM read bursts serviced by the write queue
system.mem_ctrls0.totBusLat                       900                       # Total ticks spent in databus transfers
system.mem_ctrls0.totGap                        83545                       # Total gap between requests
system.mem_ctrls0.totMemAccLat                   6585                       # Total ticks spent from burst creation until serviced by the DRAM
system.mem_ctrls0.totQLat                        3165                       # Total ticks spent queuing
system.mem_ctrls0.wrQLenPdf::0                      0                       # What write queue length does an incoming req see
system.mem_ctrls0.wrQLenPdf::1                      0                       # What write queue length does an incoming req see
system.mem_ctrls0.wrQLenPdf::2                      0                       # What write queue length does an incoming req see
system.mem_ctrls0.wrQLenPdf::3                      0                       # What write queue length does an incoming req see
system.mem_ctrls0.wrQLenPdf::4                      0                       # What write queue length does an incoming req see
system.mem_ctrls0.wrQLenPdf::5                      0                       # What write queue length does an incoming req see
system.mem_ctrls0.wrQLenPdf::6                      0                       # What write queue length does an incoming req see
system.mem_ctrls0.wrQLenPdf::7                      0                       # What write queue length does an incoming req see
system.mem_ctrls0.wrQLenPdf::8                      0                       # What write queue length does an incoming req see
system.mem_ctrls0.wrQLenPdf::9                      0                       # What write queue length does an incoming req see
system.mem_ctrls0.wrQLenPdf::10                     0                       # What write queue length does an incoming req see
system.mem_ctrls0.wrQLenPdf::11                     0                       # What write queue length does an incoming req see
system.mem_ctrls0.wrQLenPdf::12                     0                       # What write queue length does an incoming req see
system.mem_ctrls0.wrQLenPdf::13                     0                       # What write queue length does an incoming req see
system.mem_ctrls0.wrQLenPdf::14                     0                       # What write queue length does an incoming req see
system.mem_ctrls0.wrQLenPdf::15                     0                       # What write queue length does an incoming req see
system.mem_ctrls0.wrQLenPdf::16                     0                       # What write queue length does an incoming req see
system.mem_ctrls0.wrQLenPdf::17                     0                       # What write queue length does an incoming req see
system.mem_ctrls0.wrQLenPdf::18                     0                       # What write queue length does an incoming req see
system.mem_ctrls0.wrQLenPdf::19                     0                       # What write queue length does an incoming req see
system.mem_ctrls0.wrQLenPdf::20                     0                       # What write queue length does an incoming req see
system.mem_ctrls0.wrQLenPdf::21                     0                       # What write queue length does an incoming req see
system.mem_ctrls0.wrQLenPdf::22                     0                       # What write queue length does an incoming req see
system.mem_ctrls0.wrQLenPdf::23                     0                       # What write queue length does an incoming req see
system.mem_ctrls0.wrQLenPdf::24                     0                       # What write queue length does an incoming req see
system.mem_ctrls0.wrQLenPdf::25                     0                       # What write queue length does an incoming req see
system.mem_ctrls0.wrQLenPdf::26                     0                       # What write queue length does an incoming req see
system.mem_ctrls0.wrQLenPdf::27                     0                       # What write queue length does an incoming req see
system.mem_ctrls0.wrQLenPdf::28                     0                       # What write queue length does an incoming req see
system.mem_ctrls0.wrQLenPdf::29                     0                       # What write queue length does an incoming req see
system.mem_ctrls0.wrQLenPdf::30                     0                       # What write queue length does an incoming req see
system.mem_ctrls0.wrQLenPdf::31                     0                       # What write queue length does an incoming req see
system.mem_ctrls0.wrQLenPdf::32                     0                       # What write queue length does an incoming req see
system.mem_ctrls0.wrQLenPdf::33                     0                       # What write queue length does an incoming req see
system.mem_ctrls0.wrQLenPdf::34                     0                       # What write queue length does an incoming req see
system.mem_ctrls0.wrQLenPdf::35                     0                       # What write queue length does an incoming req see
system.mem_ctrls0.wrQLenPdf::36                     0                       # What write queue length does an incoming req see
system.mem_ctrls0.wrQLenPdf::37                     0                       # What write queue length does an incoming req see
system.mem_ctrls0.wrQLenPdf::38                     0                       # What write queue length does an incoming req see
system.mem_ctrls0.wrQLenPdf::39                     0                       # What write queue length does an incoming req see
system.mem_ctrls0.wrQLenPdf::40                     0                       # What write queue length does an incoming req see
system.mem_ctrls0.wrQLenPdf::41                     0                       # What write queue length does an incoming req see
system.mem_ctrls0.wrQLenPdf::42                     0                       # What write queue length does an incoming req see
system.mem_ctrls0.wrQLenPdf::43                     0                       # What write queue length does an incoming req see
system.mem_ctrls0.wrQLenPdf::44                     0                       # What write queue length does an incoming req see
system.mem_ctrls0.wrQLenPdf::45                     0                       # What write queue length does an incoming req see
system.mem_ctrls0.wrQLenPdf::46                     0                       # What write queue length does an incoming req see
system.mem_ctrls0.wrQLenPdf::47                     0                       # What write queue length does an incoming req see
system.mem_ctrls0.wrQLenPdf::48                     0                       # What write queue length does an incoming req see
system.mem_ctrls0.wrQLenPdf::49                     0                       # What write queue length does an incoming req see
system.mem_ctrls0.wrQLenPdf::50                     0                       # What write queue length does an incoming req see
system.mem_ctrls0.wrQLenPdf::51                     0                       # What write queue length does an incoming req see
system.mem_ctrls0.wrQLenPdf::52                     0                       # What write queue length does an incoming req see
system.mem_ctrls0.wrQLenPdf::53                     0                       # What write queue length does an incoming req see
system.mem_ctrls0.wrQLenPdf::54                     0                       # What write queue length does an incoming req see
system.mem_ctrls0.wrQLenPdf::55                     0                       # What write queue length does an incoming req see
system.mem_ctrls0.wrQLenPdf::56                     0                       # What write queue length does an incoming req see
system.mem_ctrls0.wrQLenPdf::57                     0                       # What write queue length does an incoming req see
system.mem_ctrls0.wrQLenPdf::58                     0                       # What write queue length does an incoming req see
system.mem_ctrls0.wrQLenPdf::59                     0                       # What write queue length does an incoming req see
system.mem_ctrls0.wrQLenPdf::60                     0                       # What write queue length does an incoming req see
system.mem_ctrls0.wrQLenPdf::61                     0                       # What write queue length does an incoming req see
system.mem_ctrls0.wrQLenPdf::62                     0                       # What write queue length does an incoming req see
system.mem_ctrls0.wrQLenPdf::63                     0                       # What write queue length does an incoming req see
system.mem_ctrls0.writeBursts                       0                       # Number of DRAM write bursts, including those merged in the write queue
system.mem_ctrls0.writePktSize::0                   0                       # Write request sizes (log2)
system.mem_ctrls0.writePktSize::1                   0                       # Write request sizes (log2)
system.mem_ctrls0.writePktSize::2                   0                       # Write request sizes (log2)
system.mem_ctrls0.writePktSize::3                   0                       # Write request sizes (log2)
system.mem_ctrls0.writePktSize::4                   0                       # Write request sizes (log2)
system.mem_ctrls0.writePktSize::5                   0                       # Write request sizes (log2)
system.mem_ctrls0.writePktSize::6                   0                       # Write request sizes (log2)
system.mem_ctrls0.writeReqs                         0                       # Number of write requests accepted
system.mem_ctrls0.writeRowHitRate                 nan                       # Row buffer hit rate for writes
system.mem_ctrls0.writeRowHits                      0                       # Number of row buffer hits during writes
system.mem_ctrls0_0.actBackEnergy             1204524                       # Energy for active background per rank (pJ)
system.mem_ctrls0_0.actEnergy                  110160                       # Energy for activate commands per rank (pJ)
system.mem_ctrls0_0.actPowerDownEnergy       16362648                       # Energy for active power-down per rank (pJ)
system.mem_ctrls0_0.averagePower           536.162657                       # Core power per rank (mW)
system.mem_ctrls0_0.memoryStateTime::IDLE         1758                       # Time in different power states
system.mem_ctrls0_0.memoryStateTime::REF         2600                       # Time in different power states
system.mem_ctrls0_0.memoryStateTime::SREF            0                       # Time in different power states
system.mem_ctrls0_0.memoryStateTime::PRE_PDN         5461                       # Time in different power states
system.mem_ctrls0_0.memoryStateTime::ACT         2948                       # Time in different power states
system.mem_ctrls0_0.memoryStateTime::ACT_PDN        71779                       # Time in different power states
system.mem_ctrls0_0.preBackEnergy              391104                       # Energy for precharge background per rank (pJ)
system.mem_ctrls0_0.preEnergy                   52164                       # Energy for precharge commands per rank (pJ)
system.mem_ctrls0_0.prePowerDownEnergy        1048320                       # Energy for precharge power-down per rank (pJ)
system.mem_ctrls0_0.readEnergy                 411264                       # Energy for read commands per rank (pJ)
system.mem_ctrls0_0.refreshEnergy        3085020.000000                       # Energy for refresh commands per rank (pJ)
system.mem_ctrls0_0.selfRefreshEnergy               0                       # Energy for self refresh per rank (pJ)
system.mem_ctrls0_0.totalEnergy              22665204                       # Total energy per rank (pJ)
system.mem_ctrls0_0.totalIdleTime               76035                       # Total Idle time Per DRAM Rank
system.mem_ctrls0_0.writeEnergy                     0                       # Energy for write commands per rank (pJ)
system.mem_ctrls0_1.actBackEnergy             1140228                       # Energy for active background per rank (pJ)
system.mem_ctrls0_1.actEnergy                  117504                       # Energy for activate commands per rank (pJ)
system.mem_ctrls0_1.actPowerDownEnergy       17094528                       # Energy for active power-down per rank (pJ)
system.mem_ctrls0_1.averagePower           537.701937                       # Core power per rank (mW)
system.mem_ctrls0_1.memoryStateTime::IDLE          458                       # Time in different power states
system.mem_ctrls0_1.memoryStateTime::REF         2600                       # Time in different power states
system.mem_ctrls0_1.memoryStateTime::SREF            0                       # Time in different power states
system.mem_ctrls0_1.memoryStateTime::PRE_PDN         3831                       # Time in different power states
system.mem_ctrls0_1.memoryStateTime::ACT         2676                       # Time in different power states
system.mem_ctrls0_1.memoryStateTime::ACT_PDN        74981                       # Time in different power states
system.mem_ctrls0_1.preBackEnergy              141696                       # Energy for precharge background per rank (pJ)
system.mem_ctrls0_1.preEnergy                   55890                       # Energy for precharge commands per rank (pJ)
system.mem_ctrls0_1.prePowerDownEnergy         735552                       # Energy for precharge power-down per rank (pJ)
system.mem_ctrls0_1.readEnergy                 359856                       # Energy for read commands per rank (pJ)
system.mem_ctrls0_1.refreshEnergy        3085020.000000                       # Energy for refresh commands per rank (pJ)
system.mem_ctrls0_1.selfRefreshEnergy               0                       # Energy for self refresh per rank (pJ)
system.mem_ctrls0_1.totalEnergy              22730274                       # Total energy per rank (pJ)
system.mem_ctrls0_1.totalIdleTime               78259                       # Total Idle time Per DRAM Rank
system.mem_ctrls0_1.writeEnergy                     0                       # Energy for write commands per rank (pJ)
system.mem_ctrls1.avgBusLat                     10.00                       # Average bus latency per DRAM burst
system.mem_ctrls1.avgGap                       900.62                       # Average gap between requests
system.mem_ctrls1.avgMemAccLat                  60.09                       # Average memory access latency per DRAM burst
system.mem_ctrls1.avgPriority_.ruby.dir_cntrl1::samples        92.00                       # Average QoS priority value for accepted requests
system.mem_ctrls1.avgQLat                       22.09                       # Average queueing delay per DRAM burst
system.mem_ctrls1.avgRdBW                      139.29                       # Average DRAM read bandwidth in MiByte/s
system.mem_ctrls1.avgRdBWSys                   139.29                       # Average system read bandwidth in MiByte/s
system.mem_ctrls1.avgRdQLen                      0.98                       # Average read queue length when enqueuing
system.mem_ctrls1.avgWrBW                        0.00                       # Average achieved write bandwidth in MiByte/s
system.mem_ctrls1.avgWrBWSys                     0.00                       # Average system write bandwidth in MiByte/s
system.mem_ctrls1.avgWrQLen                      0.00                       # Average write queue length when enqueuing
system.mem_ctrls1.busUtil                        1.09                       # Data bus utilization in percentage
system.mem_ctrls1.busUtilRead                    1.09                       # Data bus utilization in percentage for reads
system.mem_ctrls1.busUtilWrite                   0.00                       # Data bus utilization in percentage for writes
system.mem_ctrls1.bw_read::.ruby.dir_cntrl1    139285123                       # Total read bandwidth from this memory (bytes/s)
system.mem_ctrls1.bw_read::total            139285123                       # Total read bandwidth from this memory (bytes/s)
system.mem_ctrls1.bw_total::.ruby.dir_cntrl1    139285123                       # Total bandwidth to/from this memory (bytes/s)
system.mem_ctrls1.bw_total::total           139285123                       # Total bandwidth to/from this memory (bytes/s)
system.mem_ctrls1.bytesPerActivate::samples           31                       # Bytes accessed per row activation
system.mem_ctrls1.bytesPerActivate::mean   175.483871                       # Bytes accessed per row activation
system.mem_ctrls1.bytesPerActivate::gmean   126.758787                       # Bytes accessed per row activation
system.mem_ctrls1.bytesPerActivate::stdev   149.608349                       # Bytes accessed per row activation
system.mem_ctrls1.bytesPerActivate::64-127           16     51.61%     51.61% # Bytes accessed per row activation
system.mem_ctrls1.bytesPerActivate::128-191            4     12.90%     64.52% # Bytes accessed per row activation
system.mem_ctrls1.bytesPerActivate::192-255            1      3.23%     67.74% # Bytes accessed per row activation
system.mem_ctrls1.bytesPerActivate::256-319            1      3.23%     70.97% # Bytes accessed per row activation
system.mem_ctrls1.bytesPerActivate::320-383            5     16.13%     87.10% # Bytes accessed per row activation
system.mem_ctrls1.bytesPerActivate::384-447            1      3.23%     90.32% # Bytes accessed per row activation
system.mem_ctrls1.bytesPerActivate::448-511            2      6.45%     96.77% # Bytes accessed per row activation
system.mem_ctrls1.bytesPerActivate::576-639            1      3.23%    100.00% # Bytes accessed per row activation
system.mem_ctrls1.bytesPerActivate::total           31                       # Bytes accessed per row activation
system.mem_ctrls1.bytesReadDRAM                  5888                       # Total number of bytes read from DRAM
system.mem_ctrls1.bytesReadSys                   5888                       # Total read bytes from the system interface side
system.mem_ctrls1.bytesReadWrQ                      0                       # Total number of bytes read from write queue
system.mem_ctrls1.bytesWritten                      0                       # Total number of bytes written to DRAM
system.mem_ctrls1.bytesWrittenSys                   0                       # Total written bytes from the system interface side
system.mem_ctrls1.bytes_read::.ruby.dir_cntrl1         5888                       # Number of bytes read from this memory
system.mem_ctrls1.bytes_read::total              5888                       # Number of bytes read from this memory
system.mem_ctrls1.masterReadAccesses::.ruby.dir_cntrl1           92                       # Per-master read serviced memory accesses
system.mem_ctrls1.masterReadAvgLat::.ruby.dir_cntrl1        60.09                       # Per-master read average memory access latency
system.mem_ctrls1.masterReadBytes::.ruby.dir_cntrl1         5888                       # Per-master bytes read from memory
system.mem_ctrls1.masterReadRate::.ruby.dir_cntrl1 139285122.891680270433                       # Per-master bytes read from memory rate (Bytes/sec)
system.mem_ctrls1.masterReadTotalLat::.ruby.dir_cntrl1         5528                       # Per-master read total memory access latency
system.mem_ctrls1.mergedWrBursts                    0                       # Number of DRAM write bursts merged with an existing one
system.mem_ctrls1.neitherReadNorWriteReqs            0                       # Number of requests that are neither read nor write
system.mem_ctrls1.numRdRetry                        0                       # Number of times read queue was full causing retry
system.mem_ctrls1.numReadWriteTurnArounds            0                       # Number of turnarounds from READ to WRITE
system.mem_ctrls1.numStayReadState                194                       # Number of times bus staying in READ state
system.mem_ctrls1.numStayWriteState                 0                       # Number of times bus staying in WRITE state
system.mem_ctrls1.numWrRetry                        0                       # Number of times write queue was full causing retry
system.mem_ctrls1.numWriteReadTurnArounds            0                       # Number of turnarounds from WRITE to READ
system.mem_ctrls1.num_reads::.ruby.dir_cntrl1           92                       # Number of read requests responded to by this memory
system.mem_ctrls1.num_reads::total                 92                       # Number of read requests responded to by this memory
system.mem_ctrls1.pageHitRate                   63.04                       # Row buffer hit rate, read and write combined
system.mem_ctrls1.peakBW                     12800.00                       # Theoretical peak bandwidth in MiByte/s
system.mem_ctrls1.perBankRdBursts::0               16                       # Per bank write bursts
system.mem_ctrls1.perBankRdBursts::1               21                       # Per bank write bursts
system.mem_ctrls1.perBankRdBursts::2                8                       # Per bank write bursts
system.mem_ctrls1.perBankRdBursts::3                1                       # Per bank write bursts
system.mem_ctrls1.perBankRdBursts::4                0                       # Per bank write bursts
system.mem_ctrls1.perBankRdBursts::5                5                       # Per bank write bursts
system.mem_ctrls1.perBankRdBursts::6                4                       # Per bank write bursts
system.mem_ctrls1.perBankRdBursts::7                0                       # Per bank write bursts
system.mem_ctrls1.perBankRdBursts::8                0                       # Per bank write bursts
system.mem_ctrls1.perBankRdBursts::9                3                       # Per bank write bursts
system.mem_ctrls1.perBankRdBursts::10               0                       # Per bank write bursts
system.mem_ctrls1.perBankRdBursts::11               1                       # Per bank write bursts
system.mem_ctrls1.perBankRdBursts::12               1                       # Per bank write bursts
system.mem_ctrls1.perBankRdBursts::13              28                       # Per bank write bursts
system.mem_ctrls1.perBankRdBursts::14               4                       # Per bank write bursts
system.mem_ctrls1.perBankRdBursts::15               0                       # Per bank write bursts
system.mem_ctrls1.perBankWrBursts::0                0                       # Per bank write bursts
system.mem_ctrls1.perBankWrBursts::1                0                       # Per bank write bursts
system.mem_ctrls1.perBankWrBursts::2                0                       # Per bank write bursts
system.mem_ctrls1.perBankWrBursts::3                0                       # Per bank write bursts
system.mem_ctrls1.perBankWrBursts::4                0                       # Per bank write bursts
system.mem_ctrls1.perBankWrBursts::5                0                       # Per bank write bursts
system.mem_ctrls1.perBankWrBursts::6                0                       # Per bank write bursts
system.mem_ctrls1.perBankWrBursts::7                0                       # Per bank write bursts
system.mem_ctrls1.perBankWrBursts::8                0                       # Per bank write bursts
system.mem_ctrls1.perBankWrBursts::9                0                       # Per bank write bursts
system.mem_ctrls1.perBankWrBursts::10               0                       # Per bank write bursts
system.mem_ctrls1.perBankWrBursts::11               0                       # Per bank write bursts
system.mem_ctrls1.perBankWrBursts::12               0                       # Per bank write bursts
system.mem_ctrls1.perBankWrBursts::13               0                       # Per bank write bursts
system.mem_ctrls1.perBankWrBursts::14               0                       # Per bank write bursts
system.mem_ctrls1.perBankWrBursts::15               0                       # Per bank write bursts
system.mem_ctrls1.priorityMaxLatency     0.000000039000                       # per QoS priority maximum request to response latency (s)
system.mem_ctrls1.priorityMinLatency     0.000000025000                       # per QoS priority minimum request to response latency (s)
system.mem_ctrls1.pwrStateResidencyTicks::UNDEFINED        84546                       # Cumulative time (in ticks) in various power states
system.mem_ctrls1.rdQLenPdf::0                     92                       # What read queue length does an incoming req see
system.mem_ctrls1.rdQLenPdf::1                      0                       # What read queue length does an incoming req see
system.mem_ctrls1.rdQLenPdf::2                      0                       # What read queue length does an incoming req see
system.mem_ctrls1.rdQLenPdf::3                      0                       # What read queue length does an incoming req see
system.mem_ctrls1.rdQLenPdf::4                      0                       # What read queue length does an incoming req see
system.mem_ctrls1.rdQLenPdf::5                      0                       # What read queue length does an incoming req see
system.mem_ctrls1.rdQLenPdf::6                      0                       # What read queue length does an incoming req see
system.mem_ctrls1.rdQLenPdf::7                      0                       # What read queue length does an incoming req see
system.mem_ctrls1.rdQLenPdf::8                      0                       # What read queue length does an incoming req see
system.mem_ctrls1.rdQLenPdf::9                      0                       # What read queue length does an incoming req see
system.mem_ctrls1.rdQLenPdf::10                     0                       # What read queue length does an incoming req see
system.mem_ctrls1.rdQLenPdf::11                     0                       # What read queue length does an incoming req see
system.mem_ctrls1.rdQLenPdf::12                     0                       # What read queue length does an incoming req see
system.mem_ctrls1.rdQLenPdf::13                     0                       # What read queue length does an incoming req see
system.mem_ctrls1.rdQLenPdf::14                     0                       # What read queue length does an incoming req see
system.mem_ctrls1.rdQLenPdf::15                     0                       # What read queue length does an incoming req see
system.mem_ctrls1.rdQLenPdf::16                     0                       # What read queue length does an incoming req see
system.mem_ctrls1.rdQLenPdf::17                     0                       # What read queue length does an incoming req see
system.mem_ctrls1.rdQLenPdf::18                     0                       # What read queue length does an incoming req see
system.mem_ctrls1.rdQLenPdf::19                     0                       # What read queue length does an incoming req see
system.mem_ctrls1.rdQLenPdf::20                     0                       # What read queue length does an incoming req see
system.mem_ctrls1.rdQLenPdf::21                     0                       # What read queue length does an incoming req see
system.mem_ctrls1.rdQLenPdf::22                     0                       # What read queue length does an incoming req see
system.mem_ctrls1.rdQLenPdf::23                     0                       # What read queue length does an incoming req see
system.mem_ctrls1.rdQLenPdf::24                     0                       # What read queue length does an incoming req see
system.mem_ctrls1.rdQLenPdf::25                     0                       # What read queue length does an incoming req see
system.mem_ctrls1.rdQLenPdf::26                     0                       # What read queue length does an incoming req see
system.mem_ctrls1.rdQLenPdf::27                     0                       # What read queue length does an incoming req see
system.mem_ctrls1.rdQLenPdf::28                     0                       # What read queue length does an incoming req see
system.mem_ctrls1.rdQLenPdf::29                     0                       # What read queue length does an incoming req see
system.mem_ctrls1.rdQLenPdf::30                     0                       # What read queue length does an incoming req see
system.mem_ctrls1.rdQLenPdf::31                     0                       # What read queue length does an incoming req see
system.mem_ctrls1.readBursts                       92                       # Number of DRAM read bursts, including those serviced by the write queue
system.mem_ctrls1.readPktSize::0                    0                       # Read request sizes (log2)
system.mem_ctrls1.readPktSize::1                    0                       # Read request sizes (log2)
system.mem_ctrls1.readPktSize::2                    0                       # Read request sizes (log2)
system.mem_ctrls1.readPktSize::3                    0                       # Read request sizes (log2)
system.mem_ctrls1.readPktSize::4                    0                       # Read request sizes (log2)
system.mem_ctrls1.readPktSize::5                    0                       # Read request sizes (log2)
system.mem_ctrls1.readPktSize::6                   92                       # Read request sizes (log2)
system.mem_ctrls1.readReqs                         92                       # Number of read requests accepted
system.mem_ctrls1.readRowHitRate                63.04                       # Row buffer hit rate for reads
system.mem_ctrls1.readRowHits                      58                       # Number of row buffer hits during reads
system.mem_ctrls1.servicedByWrQ                     0                       # Number of DRAM read bursts serviced by the write queue
system.mem_ctrls1.totBusLat                       920                       # Total ticks spent in databus transfers
system.mem_ctrls1.totGap                        82857                       # Total gap between requests
system.mem_ctrls1.totMemAccLat                   5528                       # Total ticks spent from burst creation until serviced by the DRAM
system.mem_ctrls1.totQLat                        2032                       # Total ticks spent queuing
system.mem_ctrls1.wrQLenPdf::0                      0                       # What write queue length does an incoming req see
system.mem_ctrls1.wrQLenPdf::1                      0                       # What write queue length does an incoming req see
system.mem_ctrls1.wrQLenPdf::2                      0                       # What write queue length does an incoming req see
system.mem_ctrls1.wrQLenPdf::3                      0                       # What write queue length does an incoming req see
system.mem_ctrls1.wrQLenPdf::4                      0                       # What write queue length does an incoming req see
system.mem_ctrls1.wrQLenPdf::5                      0                       # What write queue length does an incoming req see
system.mem_ctrls1.wrQLenPdf::6                      0                       # What write queue length does an incoming req see
system.mem_ctrls1.wrQLenPdf::7                      0                       # What write queue length does an incoming req see
system.mem_ctrls1.wrQLenPdf::8                      0                       # What write queue length does an incoming req see
system.mem_ctrls1.wrQLenPdf::9                      0                       # What write queue length does an incoming req see
system.mem_ctrls1.wrQLenPdf::10                     0                       # What write queue length does an incoming req see
system.mem_ctrls1.wrQLenPdf::11                     0                       # What write queue length does an incoming req see
system.mem_ctrls1.wrQLenPdf::12                     0                       # What write queue length does an incoming req see
system.mem_ctrls1.wrQLenPdf::13                     0                       # What write queue length does an incoming req see
system.mem_ctrls1.wrQLenPdf::14                     0                       # What write queue length does an incoming req see
system.mem_ctrls1.wrQLenPdf::15                     0                       # What write queue length does an incoming req see
system.mem_ctrls1.wrQLenPdf::16                     0                       # What write queue length does an incoming req see
system.mem_ctrls1.wrQLenPdf::17                     0                       # What write queue length does an incoming req see
system.mem_ctrls1.wrQLenPdf::18                     0                       # What write queue length does an incoming req see
system.mem_ctrls1.wrQLenPdf::19                     0                       # What write queue length does an incoming req see
system.mem_ctrls1.wrQLenPdf::20                     0                       # What write queue length does an incoming req see
system.mem_ctrls1.wrQLenPdf::21                     0                       # What write queue length does an incoming req see
system.mem_ctrls1.wrQLenPdf::22                     0                       # What write queue length does an incoming req see
system.mem_ctrls1.wrQLenPdf::23                     0                       # What write queue length does an incoming req see
system.mem_ctrls1.wrQLenPdf::24                     0                       # What write queue length does an incoming req see
system.mem_ctrls1.wrQLenPdf::25                     0                       # What write queue length does an incoming req see
system.mem_ctrls1.wrQLenPdf::26                     0                       # What write queue length does an incoming req see
system.mem_ctrls1.wrQLenPdf::27                     0                       # What write queue length does an incoming req see
system.mem_ctrls1.wrQLenPdf::28                     0                       # What write queue length does an incoming req see
system.mem_ctrls1.wrQLenPdf::29                     0                       # What write queue length does an incoming req see
system.mem_ctrls1.wrQLenPdf::30                     0                       # What write queue length does an incoming req see
system.mem_ctrls1.wrQLenPdf::31                     0                       # What write queue length does an incoming req see
system.mem_ctrls1.wrQLenPdf::32                     0                       # What write queue length does an incoming req see
system.mem_ctrls1.wrQLenPdf::33                     0                       # What write queue length does an incoming req see
system.mem_ctrls1.wrQLenPdf::34                     0                       # What write queue length does an incoming req see
system.mem_ctrls1.wrQLenPdf::35                     0                       # What write queue length does an incoming req see
system.mem_ctrls1.wrQLenPdf::36                     0                       # What write queue length does an incoming req see
system.mem_ctrls1.wrQLenPdf::37                     0                       # What write queue length does an incoming req see
system.mem_ctrls1.wrQLenPdf::38                     0                       # What write queue length does an incoming req see
system.mem_ctrls1.wrQLenPdf::39                     0                       # What write queue length does an incoming req see
system.mem_ctrls1.wrQLenPdf::40                     0                       # What write queue length does an incoming req see
system.mem_ctrls1.wrQLenPdf::41                     0                       # What write queue length does an incoming req see
system.mem_ctrls1.wrQLenPdf::42                     0                       # What write queue length does an incoming req see
system.mem_ctrls1.wrQLenPdf::43                     0                       # What write queue length does an incoming req see
system.mem_ctrls1.wrQLenPdf::44                     0                       # What write queue length does an incoming req see
system.mem_ctrls1.wrQLenPdf::45                     0                       # What write queue length does an incoming req see
system.mem_ctrls1.wrQLenPdf::46                     0                       # What write queue length does an incoming req see
system.mem_ctrls1.wrQLenPdf::47                     0                       # What write queue length does an incoming req see
system.mem_ctrls1.wrQLenPdf::48                     0                       # What write queue length does an incoming req see
system.mem_ctrls1.wrQLenPdf::49                     0                       # What write queue length does an incoming req see
system.mem_ctrls1.wrQLenPdf::50                     0                       # What write queue length does an incoming req see
system.mem_ctrls1.wrQLenPdf::51                     0                       # What write queue length does an incoming req see
system.mem_ctrls1.wrQLenPdf::52                     0                       # What write queue length does an incoming req see
system.mem_ctrls1.wrQLenPdf::53                     0                       # What write queue length does an incoming req see
system.mem_ctrls1.wrQLenPdf::54                     0                       # What write queue length does an incoming req see
system.mem_ctrls1.wrQLenPdf::55                     0                       # What write queue length does an incoming req see
system.mem_ctrls1.wrQLenPdf::56                     0                       # What write queue length does an incoming req see
system.mem_ctrls1.wrQLenPdf::57                     0                       # What write queue length does an incoming req see
system.mem_ctrls1.wrQLenPdf::58                     0                       # What write queue length does an incoming req see
system.mem_ctrls1.wrQLenPdf::59                     0                       # What write queue length does an incoming req see
system.mem_ctrls1.wrQLenPdf::60                     0                       # What write queue length does an incoming req see
system.mem_ctrls1.wrQLenPdf::61                     0                       # What write queue length does an incoming req see
system.mem_ctrls1.wrQLenPdf::62                     0                       # What write queue length does an incoming req see
system.mem_ctrls1.wrQLenPdf::63                     0                       # What write queue length does an incoming req see
system.mem_ctrls1.writeBursts                       0                       # Number of DRAM write bursts, including those merged in the write queue
system.mem_ctrls1.writePktSize::0                   0                       # Write request sizes (log2)
system.mem_ctrls1.writePktSize::1                   0                       # Write request sizes (log2)
system.mem_ctrls1.writePktSize::2                   0                       # Write request sizes (log2)
system.mem_ctrls1.writePktSize::3                   0                       # Write request sizes (log2)
system.mem_ctrls1.writePktSize::4                   0                       # Write request sizes (log2)
system.mem_ctrls1.writePktSize::5                   0                       # Write request sizes (log2)
system.mem_ctrls1.writePktSize::6                   0                       # Write request sizes (log2)
system.mem_ctrls1.writeReqs                         0                       # Number of write requests accepted
system.mem_ctrls1.writeRowHitRate                 nan                       # Row buffer hit rate for writes
system.mem_ctrls1.writeRowHits                      0                       # Number of row buffer hits during writes
system.mem_ctrls1_0.actBackEnergy             1317384                       # Energy for active background per rank (pJ)
system.mem_ctrls1_0.actEnergy                  154224                       # Energy for activate commands per rank (pJ)
system.mem_ctrls1_0.actPowerDownEnergy       15026796                       # Energy for active power-down per rank (pJ)
system.mem_ctrls1_0.averagePower           534.496487                       # Core power per rank (mW)
system.mem_ctrls1_0.memoryStateTime::IDLE         3366                       # Time in different power states
system.mem_ctrls1_0.memoryStateTime::REF         2600                       # Time in different power states
system.mem_ctrls1_0.memoryStateTime::SREF            0                       # Time in different power states
system.mem_ctrls1_0.memoryStateTime::PRE_PDN         9217                       # Time in different power states
system.mem_ctrls1_0.memoryStateTime::ACT         3466                       # Time in different power states
system.mem_ctrls1_0.memoryStateTime::ACT_PDN        65897                       # Time in different power states
system.mem_ctrls1_0.preBackEnergy              699840                       # Energy for precharge background per rank (pJ)
system.mem_ctrls1_0.preEnergy                   70794                       # Energy for precharge commands per rank (pJ)
system.mem_ctrls1_0.prePowerDownEnergy        1769472                       # Energy for precharge power-down per rank (pJ)
system.mem_ctrls1_0.readEnergy                 471240                       # Energy for read commands per rank (pJ)
system.mem_ctrls1_0.refreshEnergy        3085020.000000                       # Energy for refresh commands per rank (pJ)
system.mem_ctrls1_0.selfRefreshEnergy               0                       # Energy for self refresh per rank (pJ)
system.mem_ctrls1_0.totalEnergy              22594770                       # Total energy per rank (pJ)
system.mem_ctrls1_0.totalIdleTime               74831                       # Total Idle time Per DRAM Rank
system.mem_ctrls1_0.writeEnergy                     0                       # Energy for write commands per rank (pJ)
system.mem_ctrls1_1.actBackEnergy             1062936                       # Energy for active background per rank (pJ)
system.mem_ctrls1_1.actEnergy                   95472                       # Energy for activate commands per rank (pJ)
[...]
system.ruby.network.ext_links6.rtr_net_bridge1.pwrStateResidencyTicks::UNDEFINED        84546                       # Cumulative time (in ticks) in various power states
system.ruby.network.ext_links7.credit_links0.pwrStateResidencyTicks::UNDEFINED        84546                       # Cumulative time (in ticks) in various power states
system.ruby.network.ext_links7.credit_links1.pwrStateResidencyTicks::UNDEFINED        84546                       # Cumulative time (in ticks) in various power states
system.ruby.network.ext_links7.network_links0.pwrStateResidencyTicks::UNDEFINED        84546                       # Cumulative time (in ticks) in various power states
system.ruby.network.ext_links7.network_links1.pwrStateResidencyTicks::UNDEFINED        84546                       # Cumulative time (in ticks) in various power states
system.ruby.network.ext_links7.nic_cred_bridge0.pwrStateResidencyTicks::UNDEFINED        84546                       # Cumulative time (in ticks) in various power states
system.ruby.network.ext_links7.nic_cred_bridge1.pwrStateResidencyTicks::UNDEFINED        84546                       # Cumulative time (in ticks) in various power states
system.ruby.network.ext_links7.nic_net_bridge0.pwrStateResidencyTicks::UNDEFINED        84546                       # Cumulative time (in ticks) in various power states
system.ruby.network.ext_links7.nic_net_bridge1.pwrStateResidencyTicks::UNDEFINED        84546                       # Cumulative time (in ticks) in various power states
system.ruby.network.ext_links7.rtr_cred_bridge0.pwrStateResidencyTicks::UNDEFINED        84546                       # Cumulative time (in ticks) in various power states
system.ruby.network.ext_links7.rtr_cred_bridge1.pwrStateResidencyTicks::UNDEFINED        84546                       # Cumulative time (in ticks) in various power states
system.ruby.network.ext_links7.rtr_net_bridge0.pwrStateResidencyTicks::UNDEFINED        84546                       # Cumulative time (in ticks) in various power states
system.ruby.network.ext_links7.rtr_net_bridge1.pwrStateResidencyTicks::UNDEFINED        84546                       # Cumulative time (in ticks) in various power states
system.ruby.network.ext_out_link_utilization         5288                      
system.ruby.network.flit_network_latency |       11271                       |       51519                       |         600                      
system.ruby.network.flit_queueing_latency |        2515                       |        4002                       |         150                      
system.ruby.network.flits_injected       |         871     17.73%     17.73% |        3891     79.21%     96.95% |         150      3.05%    100.00%
system.ruby.network.flits_injected::total         4912                      
system.ruby.network.flits_received       |        1247     23.58%     23.58% |        3891     73.58%     97.16% |         150      2.84%    100.00%
system.ruby.network.flits_received::total         5288                      
system.ruby.network.int_link_utilization        11481                      
system.ruby.network.int_links0.credit_link.pwrStateResidencyTicks::UNDEFINED        84546                       # Cumulative time (in ticks) in various power states
system.ruby.network.int_links0.network_link.pwrStateResidencyTicks::UNDEFINED        84546                       # Cumulative time (in ticks) in various power states
system.ruby.network.int_links0.rx_cred_bridge.pwrStateResidencyTicks::UNDEFINED        84546                       # Cumulative time (in ticks) in various power states
system.ruby.network.int_links0.rx_net_bridge.pwrStateResidencyTicks::UNDEFINED        84546                       # Cumulative time (in ticks) in various power states
system.ruby.network.int_links0.tx_cred_bridge.pwrStateResidencyTicks::UNDEFINED        84546                       # Cumulative time (in ticks) in various power states
system.ruby.network.int_links0.tx_net_bridge.pwrStateResidencyTicks::UNDEFINED        84546                       # Cumulative time (in ticks) in various power states
system.ruby.network.int_links1.credit_link.pwrStateResidencyTicks::UNDEFINED        84546                       # Cumulative time (in ticks) in various power states
system.ruby.network.int_links1.network_link.pwrStateResidencyTicks::UNDEFINED        84546                       # Cumulative time (in ticks) in various power states
system.ruby.network.int_links1.rx_cred_bridge.pwrStateResidencyTicks::UNDEFINED        84546                       # Cumulative time (in ticks) in various power states
system.ruby.network.int_links1.rx_net_bridge.pwrStateResidencyTicks::UNDEFINED        84546                       # Cumulative time (in ticks) in various power states
system.ruby.network.int_links1.tx_cred_bridge.pwrStateResidencyTicks::UNDEFINED        84546                       # Cumulative time (in ticks) in various power states
system.ruby.network.int_links1.tx_net_bridge.pwrStateResidencyTicks::UNDEFINED        84546                       # Cumulative time (in ticks) in various power states
system.ruby.network.int_links2.credit_link.pwrStateResidencyTicks::UNDEFINED        84546                       # Cumulative time (in ticks) in various power states
system.ruby.network.int_links2.network_link.pwrStateResidencyTicks::UNDEFINED        84546                       # Cumulative time (in ticks) in various power states
system.ruby.network.int_links2.rx_cred_bridge.pwrStateResidencyTicks::UNDEFINED        84546                       # Cumulative time (in ticks) in various power states
system.ruby.network.int_links2.rx_net_bridge.pwrStateResidencyTicks::UNDEFINED        84546                       # Cumulative time (in ticks) in various power states
system.ruby.network.int_links2.tx_cred_bridge.pwrStateResidencyTicks::UNDEFINED        84546                       # Cumulative time (in ticks) in various power states
system.ruby.network.int_links2.tx_net_bridge.pwrStateResidencyTicks::UNDEFINED        84546                       # Cumulative time (in ticks) in various power states
system.ruby.network.int_links3.credit_link.pwrStateResidencyTicks::UNDEFINED        84546                       # Cumulative time (in ticks) in various power states
system.ruby.network.int_links3.network_link.pwrStateResidencyTicks::UNDEFINED        84546                       # Cumulative time (in ticks) in various power states
system.ruby.network.int_links3.rx_cred_bridge.pwrStateResidencyTicks::UNDEFINED        84546                       # Cumulative time (in ticks) in various power states
system.ruby.network.int_links3.rx_net_bridge.pwrStateResidencyTicks::UNDEFINED        84546                       # Cumulative time (in ticks) in various power states
system.ruby.network.int_links3.tx_cred_bridge.pwrStateResidencyTicks::UNDEFINED        84546                       # Cumulative time (in ticks) in various power states
system.ruby.network.int_links3.tx_net_bridge.pwrStateResidencyTicks::UNDEFINED        84546                       # Cumulative time (in ticks) in various power states
system.ruby.network.int_links4.credit_link.pwrStateResidencyTicks::UNDEFINED        84546                       # Cumulative time (in ticks) in various power states
system.ruby.network.int_links4.network_link.pwrStateResidencyTicks::UNDEFINED        84546                       # Cumulative time (in ticks) in various power states
system.ruby.network.int_links4.rx_cred_bridge.pwrStateResidencyTicks::UNDEFINED        84546                       # Cumulative time (in ticks) in various power states
system.ruby.network.int_links4.rx_net_bridge.pwrStateResidencyTicks::UNDEFINED        84546                       # Cumulative time (in ticks) in various power states
system.ruby.network.int_links4.tx_cred_bridge.pwrStateResidencyTicks::UNDEFINED        84546                       # Cumulative time (in ticks) in various power states
system.ruby.network.int_links4.tx_net_bridge.pwrStateResidencyTicks::UNDEFINED        84546                       # Cumulative time (in ticks) in various power states
system.ruby.network.int_links5.credit_link.pwrStateResidencyTicks::UNDEFINED        84546                       # Cumulative time (in ticks) in various power states
system.ruby.network.int_links5.network_link.pwrStateResidencyTicks::UNDEFINED        84546                       # Cumulative time (in ticks) in various power states
system.ruby.network.int_links5.rx_cred_bridge.pwrStateResidencyTicks::UNDEFINED        84546                       # Cumulative time (in ticks) in various power states
system.ruby.network.int_links5.rx_net_bridge.pwrStateResidencyTicks::UNDEFINED        84546                       # Cumulative time (in ticks) in various power states
system.ruby.network.int_links5.tx_cred_bridge.pwrStateResidencyTicks::UNDEFINED        84546                       # Cumulative time (in ticks) in various power states
system.ruby.network.int_links5.tx_net_bridge.pwrStateResidencyTicks::UNDEFINED        84546                       # Cumulative time (in ticks) in various power states
system.ruby.network.int_links6.credit_link.pwrStateResidencyTicks::UNDEFINED        84546                       # Cumulative time (in ticks) in various power states
system.ruby.network.int_links6.network_link.pwrStateResidencyTicks::UNDEFINED        84546                       # Cumulative time (in ticks) in various power states
system.ruby.network.int_links6.rx_cred_bridge.pwrStateResidencyTicks::UNDEFINED        84546                       # Cumulative time (in ticks) in various power states
system.ruby.network.int_links6.rx_net_bridge.pwrStateResidencyTicks::UNDEFINED        84546                       # Cumulative time (in ticks) in various power states
system.ruby.network.int_links6.tx_cred_bridge.pwrStateResidencyTicks::UNDEFINED        84546                       # Cumulative time (in ticks) in various power states
system.ruby.network.int_links6.tx_net_bridge.pwrStateResidencyTicks::UNDEFINED        84546                       # Cumulative time (in ticks) in various power states
system.ruby.network.int_links7.credit_link.pwrStateResidencyTicks::UNDEFINED        84546                       # Cumulative time (in ticks) in various power states
system.ruby.network.int_links7.network_link.pwrStateResidencyTicks::UNDEFINED        84546                       # Cumulative time (in ticks) in various power states
system.ruby.network.int_links7.rx_cred_bridge.pwrStateResidencyTicks::UNDEFINED        84546                       # Cumulative time (in ticks) in various power states
system.ruby.network.int_links7.rx_net_bridge.pwrStateResidencyTicks::UNDEFINED        84546                       # Cumulative time (in ticks) in various power states
system.ruby.network.int_links7.tx_cred_bridge.pwrStateResidencyTicks::UNDEFINED        84546                       # Cumulative time (in ticks) in various power states
system.ruby.network.int_links7.tx_net_bridge.pwrStateResidencyTicks::UNDEFINED        84546                       # Cumulative time (in ticks) in various power states
system.ruby.network.int_links8.credit_link.pwrStateResidencyTicks::UNDEFINED        84546                       # Cumulative time (in ticks) in various power states
system.ruby.network.int_links8.network_link.pwrStateResidencyTicks::UNDEFINED        84546                       # Cumulative time (in ticks) in various power states
system.ruby.network.int_links8.rx_cred_bridge.pwrStateResidencyTicks::UNDEFINED        84546                       # Cumulative time (in ticks) in various power states
system.ruby.network.int_links8.rx_net_bridge.pwrStateResidencyTicks::UNDEFINED        84546                       # Cumulative time (in ticks) in various power states
system.ruby.network.int_links8.tx_cred_bridge.pwrStateResidencyTicks::UNDEFINED        84546                       # Cumulative time (in ticks) in various power states
system.ruby.network.int_links8.tx_net_bridge.pwrStateResidencyTicks::UNDEFINED        84546                       # Cumulative time (in ticks) in various power states
system.ruby.network.int_links9.credit_link.pwrStateResidencyTicks::UNDEFINED        84546                       # Cumulative time (in ticks) in various power states
system.ruby.network.int_links9.network_link.pwrStateResidencyTicks::UNDEFINED        84546                       # Cumulative time (in ticks) in various power states
system.ruby.network.int_links9.rx_cred_bridge.pwrStateResidencyTicks::UNDEFINED        84546                       # Cumulative time (in ticks) in various power states
system.ruby.network.int_links9.rx_net_bridge.pwrStateResidencyTicks::UNDEFINED        84546                       # Cumulative time (in ticks) in various power states
system.ruby.network.int_links9.tx_cred_bridge.pwrStateResidencyTicks::UNDEFINED        84546                       # Cumulative time (in ticks) in various power states
system.ruby.network.int_links9.tx_net_bridge.pwrStateResidencyTicks::UNDEFINED        84546                       # Cumulative time (in ticks) in various power states
system.ruby.network.netifs0.pwrStateResidencyTicks::UNDEFINED        84546                       # Cumulative time (in ticks) in various power states
system.ruby.network.netifs1.pwrStateResidencyTicks::UNDEFINED        84546                       # Cumulative time (in ticks) in various power states
system.ruby.network.netifs2.pwrStateResidencyTicks::UNDEFINED        84546                       # Cumulative time (in ticks) in various power states
system.ruby.network.netifs3.pwrStateResidencyTicks::UNDEFINED        84546                       # Cumulative time (in ticks) in various power states
system.ruby.network.netifs4.pwrStateResidencyTicks::UNDEFINED        84546                       # Cumulative time (in ticks) in various power states
system.ruby.network.netifs5.pwrStateResidencyTicks::UNDEFINED        84546                       # Cumulative time (in ticks) in various power states
system.ruby.network.netifs6.pwrStateResidencyTicks::UNDEFINED        84546                       # Cumulative time (in ticks) in various power states
system.ruby.network.netifs7.pwrStateResidencyTicks::UNDEFINED        84546                       # Cumulative time (in ticks) in various power states
system.ruby.network.packet_network_latency |        6690                       |       14179                       |         600                      
system.ruby.network.packet_queueing_latency |        1611                       |         818                       |         150                      
system.ruby.network.packets_injected     |         795     45.69%     45.69% |         795     45.69%     91.38% |         150      8.62%    100.00%
system.ruby.network.packets_injected::total         1740                      
system.ruby.network.packets_received     |         795     45.69%     45.69% |         795     45.69%     91.38% |         150      8.62%    100.00%
system.ruby.network.packets_received::total         1740                      
system.ruby.network.pwrStateResidencyTicks::UNDEFINED        84546                       # Cumulative time (in ticks) in various power states
system.ruby.network.routers0.buffer_reads         4336                      
system.ruby.network.routers0.buffer_writes         4336                      
system.ruby.network.routers0.crossbar_activity         4336                      
system.ruby.network.routers0.pwrStateResidencyTicks::UNDEFINED        84546                       # Cumulative time (in ticks) in various power states
system.ruby.network.routers0.sw_input_arbiter_activity         4336                      
system.ruby.network.routers0.sw_output_arbiter_activity         4336                      
system.ruby.network.routers1.buffer_reads         3033                      
system.ruby.network.routers1.buffer_writes         3033                      
system.ruby.network.routers1.crossbar_activity         3033                      
system.ruby.network.routers1.pwrStateResidencyTicks::UNDEFINED        84546                       # Cumulative time (in ticks) in various power states
system.ruby.network.routers1.sw_input_arbiter_activity         3033                      
system.ruby.network.routers1.sw_output_arbiter_activity         3033                      
system.ruby.network.routers2.buffer_reads          630                      
system.ruby.network.routers2.buffer_writes          630                      
system.ruby.network.routers2.crossbar_activity          630                      
system.ruby.network.routers2.pwrStateResidencyTicks::UNDEFINED        84546                       # Cumulative time (in ticks) in various power states
system.ruby.network.routers2.sw_input_arbiter_activity          630                      
system.ruby.network.routers2.sw_output_arbiter_activity          630                      
system.ruby.network.routers3.buffer_reads          644                      
system.ruby.network.routers3.buffer_writes          644                      
system.ruby.network.routers3.crossbar_activity          644                      
system.ruby.network.routers3.pwrStateResidencyTicks::UNDEFINED        84546                       # Cumulative time (in ticks) in various power states
system.ruby.network.routers3.sw_input_arbiter_activity          644                      
system.ruby.network.routers3.sw_output_arbiter_activity          644                      
system.ruby.network.routers4.buffer_reads          686                      
system.ruby.network.routers4.buffer_writes          686                      
system.ruby.network.routers4.crossbar_activity          686                      
system.ruby.network.routers4.pwrStateResidencyTicks::UNDEFINED        84546                       # Cumulative time (in ticks) in various power states
system.ruby.network.routers4.sw_input_arbiter_activity          686                      
system.ruby.network.routers4.sw_output_arbiter_activity          686                      
system.ruby.network.routers5.buffer_reads          672                      
system.ruby.network.routers5.buffer_writes          672                      
system.ruby.network.routers5.crossbar_activity          672                      
system.ruby.network.routers5.pwrStateResidencyTicks::UNDEFINED        84546                       # Cumulative time (in ticks) in various power states
system.ruby.network.routers5.sw_input_arbiter_activity          672                      
system.ruby.network.routers5.sw_output_arbiter_activity          672                      
system.ruby.outstanding_req_hist_seqr::bucket_size            1                      
system.ruby.outstanding_req_hist_seqr::max_bucket            9                      
system.ruby.outstanding_req_hist_seqr::samples         9180                      
system.ruby.outstanding_req_hist_seqr::mean            1                      
system.ruby.outstanding_req_hist_seqr::gmean            1                      
system.ruby.outstanding_req_hist_seqr    |           0      0.00%      0.00% |        9180    100.00%    100.00% |           0      0.00%    100.00% |           0      0.00%    100.00% |           0      0.00%    100.00% |           0      0.00%    100.00% |           0      0.00%    100.00% |           0      0.00%    100.00% |           0      0.00%    100.00% |           0      0.00%    100.00%
system.ruby.outstanding_req_hist_seqr::total         9180                      
system.ruby.pwrStateResidencyTicks::UNDEFINED        84546                       # Cumulative time (in ticks) in various power states
system.sys_port_proxy.pwrStateResidencyTicks::UNDEFINED        84546                       # Cumulative time (in ticks) in various power states
system.voltage_domain.voltage                       1                       # Voltage in Volts

---------- End Simulation Statistics   ----------
